# ------------------------ INITIALIZATION ----------------------------
# ------------------------ PRE-AMBLE--------------------------
units		metal
dimension 	3
boundary	p	p	p
atom_style		atomic
atom_modify map array
neighbor		1.0 bin
neigh_modify	every 1 delay 2 check yes
variable	nl	equal	10
# ------------------------ DOMAIN DEFINITION--------------------------
lattice	bcc	2.866
Lattice spacing in x,y,z = 2.866 2.866 2.866
region	region1	prism	0	10	0	10	0	10	 0 0 0
create_box	1	region1
Created triclinic box = (0 0 0) to (28.66 28.66 28.66) with tilt (0 0 0)
create_atoms	1	region region1
Created 2000 atoms
# ------------------------ FORCE FIELDS ------------------------------
# Interatomic potential
pair_style		eam/alloy
pair_coeff		* * Fe_Ack.eam Fe
neighbor        		2 bin
neigh_modify    		every 10 delay 0 check no
mass            		1 56
# ------------------------- EQUILIBRATION-------------------------------
variable myTemp  equal temp
variable myPress equal press
variable myVol   equal vol
variable natoms equal "count(all)"
variable teng equal "pe"
variable ecoh equal "v_teng/v_natoms"
variable lengthx equal "lx/v_nl"
variable lengthy equal "ly/v_nl"
variable lengthz equal "lz/v_nl"

fix           avgmyTemp  all ave/time 1 5 10 v_myTemp ave running start 10000
fix           avgmyPress  all ave/time 1 5 10 v_myPress ave running start 10000
fix           avgmyVol  all ave/time 1 5 10 v_myVol ave running start 10000
fix           avglx  all ave/time 1 5 10 v_lengthx mode scalar ave running start 10000
fix           avgly  all ave/time 1 5 10 v_lengthy mode scalar ave running start 10000
fix           avglz  all ave/time 1 5 10 v_lengthz mode scalar ave running start 10000
variable      T equal "f_avgmyTemp"
variable      P equal "f_avgmyPress"
variable      V equal "f_avgmyVol"
variable      LX equal "f_avglx"
variable      LY equal "f_avgly"
variable      LZ equal "f_avglz"

timestep      0.001
thermo 100
thermo_style custom step pe lx ly lz temp press pxx pyy pzz vol

velocity all create 10.0 4928459 dist gaussian
fix 1 all npt temp 10.0 10.0 0.1 aniso 0.0 0.0 1 drag 1
run 10000
Step         PotEng           Lx             Ly             Lz            Temp          Press           Pxx            Pyy            Pzz           Volume
0  -8631.9966      28.66          28.66          28.66          10             1051.7008      1054.2322      1052.6812      1048.1889      23541.198
Averages over the last 51 of 101 rows, steps 5000 to 10000:
PotEng Lx Ly Lz Temp Press Pxx Pyy Pzz Volume
-8629.41 28.6737 28.6738 28.6736 9.87919 -3.5003 -1.07368 -2.51721 -6.91001 23575
Loop time of 5.54058 on 8 procs for 10000 steps with 2000 atoms

min_style       cg
minimize        1.0e-25  1.0e-25  5000  10000
Step         PotEng           Lx             Ly             Lz            Temp          Press           Pxx            Pyy            Pzz           Volume
10000  -8629.3771      28.672909      28.673965      28.674646      9.7609624     -8.4210798      27.539714     -12.528171     -40.274782      23575.319
Loop time of 0.0626303 on 8 procs for 73 steps with 2000 atoms

Minimization stats:
  Stopping criterion = energy tolerance
  Energy initial, next-to-last, final =
  Force two-norm initial, final = 8.2635127 7.7159247e-09
  Force max component initial, final = 0.44810597 3.7707432e-10
  Final line search alpha, max atom move = 1 3.7707432e-10
  Iterations, force evaluations = 73 146

flag: lx = 2.86728847904818 ly = 2.86740075894595 lz = 2.86746065082932 Energy = -4.31599451690919
avarage temperature = 9.74104317988739
lx = 2.86728847904818
ly = 2.86740075894595
lz = 2.86746065082932
Total energy (eV) = -4.31599451690919
Lattice constantx (Angstoms) = 2.86729090828758
Lattice constanty (Angstoms) = 2.8673965460356
Lattice constantz (Angstoms) = 2.86746463316813
Temperature (K) = 9.76096236284739
write_data Fe_10.0.data
System init for write_data ...
# ------------------------ INITIALIZATION ----------------------------
# ------------------------ PRE-AMBLE--------------------------
units		metal
dimension 	3
boundary	p	p	p
atom_style		atomic
atom_modify map array
neighbor		1.0 bin
neigh_modify	every 1 delay 2 check yes
variable	nl	equal	10
# ------------------------ DOMAIN DEFINITION--------------------------
lattice	bcc	2.866
Lattice spacing in x,y,z = 2.866 2.866 2.866
region	region1	prism	0	10	0	10	0	10	 0 0 0
create_box	1	region1
Created triclinic box = (0 0 0) to (28.66 28.66 28.66) with tilt (0 0 0)
create_atoms	1	region region1
Created 2000 atoms
# ------------------------ FORCE FIELDS ------------------------------
# Interatomic potential
pair_style		eam/alloy
pair_coeff		* * Fe_Ack.eam Fe
neighbor        		2 bin
neigh_modify    		every 10 delay 0 check no
mass            		1 56
# ------------------------- EQUILIBRATION-------------------------------
variable myTemp  equal temp
variable myPress equal press
variable myVol   equal vol
variable natoms equal "count(all)"
variable teng equal "pe"
variable ecoh equal "v_teng/v_natoms"
variable lengthx equal "lx/v_nl"
variable lengthy equal "ly/v_nl"
variable lengthz equal "lz/v_nl"

fix           avgmyTemp  all ave/time 1 5 10 v_myTemp ave running start 10000
fix           avgmyPress  all ave/time 1 5 10 v_myPress ave running start 10000
fix           avgmyVol  all ave/time 1 5 10 v_myVol ave running start 10000
fix           avglx  all ave/time 1 5 10 v_lengthx mode scalar ave running start 10000
fix           avgly  all ave/time 1 5 10 v_lengthy mode scalar ave running start 10000
fix           avglz  all ave/time 1 5 10 v_lengthz mode scalar ave running start 10000
variable      T equal "f_avgmyTemp"
variable      P equal "f_avgmyPress"
variable      V equal "f_avgmyVol"
variable      LX equal "f_avglx"
variable      LY equal "f_avgly"
variable      LZ equal "f_avglz"

timestep      0.001
thermo 100
thermo_style custom step pe lx ly lz temp press pxx pyy pzz vol

velocity all create 20.0 4928459 dist gaussian
fix 1 all npt temp 20.0 20.0 0.1 aniso 0.0 0.0 1 drag 1
run 10000
Step         PotEng           Lx             Ly             Lz            Temp          Press           Pxx            Pyy            Pzz           Volume
0  -8631.9966      28.66          28.66          28.66          20             1168.9387      1174.0016      1170.8995      1161.9149      23541.198
Averages over the last 51 of 101 rows, steps 5000 to 10000:
PotEng Lx Ly Lz Temp Press Pxx Pyy Pzz Volume
-8626.9 28.6815 28.6797 28.6834 20.1126 -5.2209 -1.38357 61.9173 -76.1964 23594.3
Loop time of 5.84985 on 8 procs for 10000 steps with 2000 atoms

min_style       cg
minimize        1.0e-25  1.0e-25  5000  10000
Step         PotEng           Lx             Ly             Lz            Temp          Press           Pxx            Pyy            Pzz           Volume
10000  -8626.7578      28.683498      28.679149      28.68334       19.603437     -54.100394     -103.44043      49.259409     -108.12016      23595.441
Loop time of 0.123 on 8 procs for 114 steps with 2000 atoms

Minimization stats:
  Stopping criterion = energy tolerance
  Energy initial, next-to-last, final =
  Force two-norm initial, final = 11.771929 1.7712584e-12
  Force max component initial, final = 0.58499699 9.4081369e-14
  Final line search alpha, max atom move = 1 9.4081369e-14
  Iterations, force evaluations = 114 228

flag: lx = 2.8683015835973 ly = 2.8679269682186 lz = 2.86835083346451 Energy = -4.3159794603117
avarage temperature = 19.7164461130213
lx = 2.8683015835973
ly = 2.8679269682186
lz = 2.86835083346451
Total energy (eV) = -4.3159794603117
Lattice constantx (Angstoms) = 2.86834981144275
Lattice constanty (Angstoms) = 2.86791493049263
Lattice constantz (Angstoms) = 2.86833401389337
Temperature (K) = 19.6034372180398
write_data Fe_20.0.data
System init for write_data ...
# ------------------------ INITIALIZATION ----------------------------
# ------------------------ PRE-AMBLE--------------------------
units		metal
dimension 	3
boundary	p	p	p
atom_style		atomic
atom_modify map array
neighbor		1.0 bin
neigh_modify	every 1 delay 2 check yes
variable	nl	equal	10
# ------------------------ DOMAIN DEFINITION--------------------------
lattice	bcc	2.866
Lattice spacing in x,y,z = 2.866 2.866 2.866
region	region1	prism	0	10	0	10	0	10	 0 0 0
create_box	1	region1
Created triclinic box = (0 0 0) to (28.66 28.66 28.66) with tilt (0 0 0)
create_atoms	1	region region1
Created 2000 atoms
# ------------------------ FORCE FIELDS ------------------------------
# Interatomic potential
pair_style		eam/alloy
pair_coeff		* * Fe_Ack.eam Fe
neighbor        		2 bin
neigh_modify    		every 10 delay 0 check no
mass            		1 56
# ------------------------- EQUILIBRATION-------------------------------
variable myTemp  equal temp
variable myPress equal press
variable myVol   equal vol
variable natoms equal "count(all)"
variable teng equal "pe"
variable ecoh equal "v_teng/v_natoms"
variable lengthx equal "lx/v_nl"
variable lengthy equal "ly/v_nl"
variable lengthz equal "lz/v_nl"

fix           avgmyTemp  all ave/time 1 5 10 v_myTemp ave running start 10000
fix           avgmyPress  all ave/time 1 5 10 v_myPress ave running start 10000
fix           avgmyVol  all ave/time 1 5 10 v_myVol ave running start 10000
fix           avglx  all ave/time 1 5 10 v_lengthx mode scalar ave running start 10000
fix           avgly  all ave/time 1 5 10 v_lengthy mode scalar ave running start 10000
fix           avglz  all ave/time 1 5 10 v_lengthz mode scalar ave running start 10000
variable      T equal "f_avgmyTemp"
variable      P equal "f_avgmyPress"
variable      V equal "f_avgmyVol"
variable      LX equal "f_avglx"
variable      LY equal "f_avgly"
variable      LZ equal "f_avglz"

timestep      0.001
thermo 100
thermo_style custom step pe lx ly lz temp press pxx pyy pzz vol

velocity all create 50.0 4928459 dist gaussian
fix 1 all npt temp 50.0 50.0 0.1 aniso 0.0 0.0 1 drag 1
run 10000
Step         PotEng           Lx             Ly             Lz            Temp          Press           Pxx            Pyy            Pzz           Volume
0  -8631.9966      28.66          28.66          28.66          50             1520.6523      1533.3096      1525.5543      1503.093       23541.198
Averages over the last 51 of 101 rows, steps 5000 to 10000:
PotEng Lx Ly Lz Temp Press Pxx Pyy Pzz Volume
-8619.15 28.7033 28.7032 28.7025 50.1229 -9.33394 -14.6776 -5.44728 -7.87694 23647.3
Loop time of 5.72939 on 8 procs for 10000 steps with 2000 atoms

min_style       cg
minimize        1.0e-25  1.0e-25  5000  10000
Step         PotEng           Lx             Ly             Lz            Temp          Press           Pxx            Pyy            Pzz           Volume
10000  -8619.1871      28.702978      28.702566      28.706723      50.180505     -216.1256      -127.04605     -209.00724     -312.32352      23650.009
Loop time of 0.0522972 on 8 procs for 55 steps with 2000 atoms

Minimization stats:
  Stopping criterion = energy tolerance
  Energy initial, next-to-last, final =
  Force two-norm initial, final = 18.375505 1.050621e-05
  Force max component initial, final = 1.0030128 5.9839673e-07
  Final line search alpha, max atom move = 1 5.9839673e-07
  Iterations, force evaluations = 55 110

flag: lx = 2.87024440883522 ly = 2.87021054839378 lz = 2.87063343260947 Energy = -4.31589170298708
avarage temperature = 50.09646961533
lx = 2.87024440883522
ly = 2.87021054839378
lz = 2.87063343260947
Total energy (eV) = -4.31589170298708
Lattice constantx (Angstoms) = 2.87029780890752
Lattice constanty (Angstoms) = 2.87025659807954
Lattice constantz (Angstoms) = 2.87067233919816
Temperature (K) = 50.1805051978067
write_data Fe_50.0.data
System init for write_data ...
# ------------------------ INITIALIZATION ----------------------------
# ------------------------ PRE-AMBLE--------------------------
units		metal
dimension 	3
boundary	p	p	p
atom_style		atomic
atom_modify map array
neighbor		1.0 bin
neigh_modify	every 1 delay 2 check yes
variable	nl	equal	10
# ------------------------ DOMAIN DEFINITION--------------------------
lattice	bcc	2.866
Lattice spacing in x,y,z = 2.866 2.866 2.866
region	region1	prism	0	10	0	10	0	10	 0 0 0
create_box	1	region1
Created triclinic box = (0 0 0) to (28.66 28.66 28.66) with tilt (0 0 0)
create_atoms	1	region region1
Created 2000 atoms
# ------------------------ FORCE FIELDS ------------------------------
# Interatomic potential
pair_style		eam/alloy
pair_coeff		* * Fe_Ack.eam Fe
neighbor        		2 bin
neigh_modify    		every 10 delay 0 check no
mass            		1 56
# ------------------------- EQUILIBRATION-------------------------------
variable myTemp  equal temp
variable myPress equal press
variable myVol   equal vol
variable natoms equal "count(all)"
variable teng equal "pe"
variable ecoh equal "v_teng/v_natoms"
variable lengthx equal "lx/v_nl"
variable lengthy equal "ly/v_nl"
variable lengthz equal "lz/v_nl"

fix           avgmyTemp  all ave/time 1 5 10 v_myTemp ave running start 10000
fix           avgmyPress  all ave/time 1 5 10 v_myPress ave running start 10000
fix           avgmyVol  all ave/time 1 5 10 v_myVol ave running start 10000
fix           avglx  all ave/time 1 5 10 v_lengthx mode scalar ave running start 10000
fix           avgly  all ave/time 1 5 10 v_lengthy mode scalar ave running start 10000
fix           avglz  all ave/time 1 5 10 v_lengthz mode scalar ave running start 10000
variable      T equal "f_avgmyTemp"
variable      P equal "f_avgmyPress"
variable      V equal "f_avgmyVol"
variable      LX equal "f_avglx"
variable      LY equal "f_avgly"
variable      LZ equal "f_avglz"

timestep      0.001
thermo 100
thermo_style custom step pe lx ly lz temp press pxx pyy pzz vol

velocity all create 100.0 4928459 dist gaussian
fix 1 all npt temp 100.0 100.0 0.1 aniso 0.0 0.0 1 drag 1
run 10000
Step         PotEng           Lx             Ly             Lz            Temp          Press           Pxx            Pyy            Pzz           Volume
0  -8631.9966      28.66          28.66          28.66          100            2106.8417      2132.1563      2116.6457      2071.7231      23541.198
Averages over the last 51 of 101 rows, steps 5000 to 10000:
PotEng Lx Ly Lz Temp Press Pxx Pyy Pzz Volume
-8606.05 28.7336 28.7342 28.7331 99.7802 -14.9357 -32.4669 -17.5014 5.16108 23723.1
Loop time of 5.79389 on 8 procs for 10000 steps with 2000 atoms

min_style       cg
minimize        1.0e-25  1.0e-25  5000  10000
Step         PotEng           Lx             Ly             Lz            Temp          Press           Pxx            Pyy            Pzz           Volume
10000  -8606.4103      28.744125      28.738818      28.731511      101.27357     -1092.6305     -1382.319      -1017.325      -878.24751      23734.302
Loop time of 0.0568674 on 8 procs for 61 steps with 2000 atoms

Minimization stats:
  Stopping criterion = energy tolerance
  Energy initial, next-to-last, final =
  Force two-norm initial, final = 26.398327 1.9923906e-06
  Force max component initial, final = 1.3078385 1.1548458e-07
  Final line search alpha, max atom move = 1 1.1548458e-07
  Iterations, force evaluations = 61 122

flag: lx = 2.87439874542171 ly = 2.87381401178998 lz = 2.87308522758944 Energy = -4.31562335628433
avarage temperature = 101.011674481395
lx = 2.87439874542171
ly = 2.87381401178998
lz = 2.87308522758944
Total energy (eV) = -4.31562335628433
Lattice constantx (Angstoms) = 2.87441248565985
Lattice constanty (Angstoms) = 2.87388182870942
Lattice constantz (Angstoms) = 2.8731510968849
Temperature (K) = 101.273570063266
write_data Fe_100.0.data
System init for write_data ...
# ------------------------ INITIALIZATION ----------------------------
# ------------------------ PRE-AMBLE--------------------------
units		metal
dimension 	3
boundary	p	p	p
atom_style		atomic
atom_modify map array
neighbor		1.0 bin
neigh_modify	every 1 delay 2 check yes
variable	nl	equal	10
# ------------------------ DOMAIN DEFINITION--------------------------
lattice	bcc	2.866
Lattice spacing in x,y,z = 2.866 2.866 2.866
region	region1	prism	0	10	0	10	0	10	 0 0 0
create_box	1	region1
Created triclinic box = (0 0 0) to (28.66 28.66 28.66) with tilt (0 0 0)
create_atoms	1	region region1
Created 2000 atoms
# ------------------------ FORCE FIELDS ------------------------------
# Interatomic potential
pair_style		eam/alloy
pair_coeff		* * Fe_Ack.eam Fe
neighbor        		2 bin
neigh_modify    		every 10 delay 0 check no
mass            		1 56
# ------------------------- EQUILIBRATION-------------------------------
variable myTemp  equal temp
variable myPress equal press
variable myVol   equal vol
variable natoms equal "count(all)"
variable teng equal "pe"
variable ecoh equal "v_teng/v_natoms"
variable lengthx equal "lx/v_nl"
variable lengthy equal "ly/v_nl"
variable lengthz equal "lz/v_nl"

fix           avgmyTemp  all ave/time 1 5 10 v_myTemp ave running start 10000
fix           avgmyPress  all ave/time 1 5 10 v_myPress ave running start 10000
fix           avgmyVol  all ave/time 1 5 10 v_myVol ave running start 10000
fix           avglx  all ave/time 1 5 10 v_lengthx mode scalar ave running start 10000
fix           avgly  all ave/time 1 5 10 v_lengthy mode scalar ave running start 10000
fix           avglz  all ave/time 1 5 10 v_lengthz mode scalar ave running start 10000
variable      T equal "f_avgmyTemp"
variable      P equal "f_avgmyPress"
variable      V equal "f_avgmyVol"
variable      LX equal "f_avglx"
variable      LY equal "f_avgly"
variable      LZ equal "f_avglz"

timestep      0.001
thermo 100
thermo_style custom step pe lx ly lz temp press pxx pyy pzz vol

velocity all create 150.0 4928459 dist gaussian
fix 1 all npt temp 150.0 150.0 0.1 aniso 0.0 0.0 1 drag 1
run 10000
Step         PotEng           Lx             Ly             Lz            Temp          Press           Pxx            Pyy            Pzz           Volume
0  -8631.9966      28.66          28.66          28.66          150            2693.0312      2731.0031      2707.7372      2640.3532      23541.198
Averages over the last 51 of 101 rows, steps 5000 to 10000:
PotEng Lx Ly Lz Temp Press Pxx Pyy Pzz Volume
-8592.82 28.7611 28.761 28.7604 150.047 -145.811 -139.601 -146.433 -151.399 23790.6
Loop time of 5.86021 on 8 procs for 10000 steps with 2000 atoms

min_style       cg
minimize        1.0e-25  1.0e-25  5000  10000
Step         PotEng           Lx             Ly             Lz            Temp          Press           Pxx            Pyy            Pzz           Volume
10000  -8593.2363      28.761465      28.767249      28.768077      151.79927     -1148.8055     -1053.4386     -1135.6065     -1257.3714      23802.367
Loop time of 0.100959 on 8 procs for 70 steps with 2000 atoms

Minimization stats:
  Stopping criterion = energy tolerance
  Energy initial, next-to-last, final =
  Force two-norm initial, final = 31.541826 1.8354848e-07
  Force max component initial, final = 1.5471078 8.3800349e-09
  Final line search alpha, max atom move = 1 8.3800349e-09
  Iterations, force evaluations = 70 140

flag: lx = 2.87617985002063 ly = 2.87664417151201 lz = 2.87679156962417 Energy = -4.31529282496157
avarage temperature = 151.854909880899
lx = 2.87617985002063
ly = 2.87664417151201
lz = 2.87679156962417
Total energy (eV) = -4.31529282496157
Lattice constantx (Angstoms) = 2.87614647039283
Lattice constanty (Angstoms) = 2.87672485601776
Lattice constantz (Angstoms) = 2.87680765056426
Temperature (K) = 151.799266766959
write_data Fe_150.0.data
System init for write_data ...
# ------------------------ INITIALIZATION ----------------------------
# ------------------------ PRE-AMBLE--------------------------
units		metal
dimension 	3
boundary	p	p	p
atom_style		atomic
atom_modify map array
neighbor		1.0 bin
neigh_modify	every 1 delay 2 check yes
variable	nl	equal	10
# ------------------------ DOMAIN DEFINITION--------------------------
lattice	bcc	2.866
Lattice spacing in x,y,z = 2.866 2.866 2.866
region	region1	prism	0	10	0	10	0	10	 0 0 0
create_box	1	region1
Created triclinic box = (0 0 0) to (28.66 28.66 28.66) with tilt (0 0 0)
create_atoms	1	region region1
Created 2000 atoms
# ------------------------ FORCE FIELDS ------------------------------
# Interatomic potential
pair_style		eam/alloy
pair_coeff		* * Fe_Ack.eam Fe
neighbor        		2 bin
neigh_modify    		every 10 delay 0 check no
mass            		1 56
# ------------------------- EQUILIBRATION-------------------------------
variable myTemp  equal temp
variable myPress equal press
variable myVol   equal vol
variable natoms equal "count(all)"
variable teng equal "pe"
variable ecoh equal "v_teng/v_natoms"
variable lengthx equal "lx/v_nl"
variable lengthy equal "ly/v_nl"
variable lengthz equal "lz/v_nl"

fix           avgmyTemp  all ave/time 1 5 10 v_myTemp ave running start 10000
fix           avgmyPress  all ave/time 1 5 10 v_myPress ave running start 10000
fix           avgmyVol  all ave/time 1 5 10 v_myVol ave running start 10000
fix           avglx  all ave/time 1 5 10 v_lengthx mode scalar ave running start 10000
fix           avgly  all ave/time 1 5 10 v_lengthy mode scalar ave running start 10000
fix           avglz  all ave/time 1 5 10 v_lengthz mode scalar ave running start 10000
variable      T equal "f_avgmyTemp"
variable      P equal "f_avgmyPress"
variable      V equal "f_avgmyVol"
variable      LX equal "f_avglx"
variable      LY equal "f_avgly"
variable      LZ equal "f_avglz"

timestep      0.001
thermo 100
thermo_style custom step pe lx ly lz temp press pxx pyy pzz vol

velocity all create 200.0 4928459 dist gaussian
fix 1 all npt temp 200.0 200.0 0.1 aniso 0.0 0.0 1 drag 1
run 10000
Step         PotEng           Lx             Ly             Lz            Temp          Press           Pxx            Pyy            Pzz           Volume
0  -8631.9966      28.66          28.66          28.66          200            3279.2206      3329.8498      3298.8286      3208.9834      23541.198
Averages over the last 51 of 101 rows, steps 5000 to 10000:
PotEng Lx Ly Lz Temp Press Pxx Pyy Pzz Volume
-8579.27 28.785 28.7853 28.7855 200.47 0.0491044 -16.6687 -0.55439 17.3704 23851.3
Loop time of 7.17323 on 8 procs for 10000 steps with 2000 atoms

min_style       cg
minimize        1.0e-25  1.0e-25  5000  10000
Step         PotEng           Lx             Ly             Lz            Temp          Press           Pxx            Pyy            Pzz           Volume
10000  -8579.0799      28.77735       28.791489      28.791893      198.9256      -303.35018     -33.612157     -483.43109     -393.00731      23855.314
Loop time of 0.0605024 on 8 procs for 58 steps with 2000 atoms

Minimization stats:
  Stopping criterion = energy tolerance
  Energy initial, next-to-last, final =
  Force two-norm initial, final = 37.018446 8.6634461e-06
  Force max component initial, final = 2.0544997 4.1131458e-07
  Final line search alpha, max atom move = 1 4.1131458e-07
  Iterations, force evaluations = 58 115

flag: lx = 2.87772482709912 ly = 2.87914461157451 lz = 2.87920206943021 Energy = -4.31496629742342
avarage temperature = 198.469421041357
lx = 2.87772482709912
ly = 2.87914461157451
lz = 2.87920206943021
Total energy (eV) = -4.31496629742342
Lattice constantx (Angstoms) = 2.87773503758405
Lattice constanty (Angstoms) = 2.87914885855297
Lattice constantz (Angstoms) = 2.87918929326593
Temperature (K) = 198.925604344387
write_data Fe_200.0.data
System init for write_data ...
# ------------------------ INITIALIZATION ----------------------------
# ------------------------ PRE-AMBLE--------------------------
units		metal
dimension 	3
boundary	p	p	p
atom_style		atomic
atom_modify map array
neighbor		1.0 bin
neigh_modify	every 1 delay 2 check yes
variable	nl	equal	10
# ------------------------ DOMAIN DEFINITION--------------------------
lattice	bcc	2.866
Lattice spacing in x,y,z = 2.866 2.866 2.866
region	region1	prism	0	10	0	10	0	10	 0 0 0
create_box	1	region1
Created triclinic box = (0 0 0) to (28.66 28.66 28.66) with tilt (0 0 0)
create_atoms	1	region region1
Created 2000 atoms
# ------------------------ FORCE FIELDS ------------------------------
# Interatomic potential
pair_style		eam/alloy
pair_coeff		* * Fe_Ack.eam Fe
neighbor        		2 bin
neigh_modify    		every 10 delay 0 check no
mass            		1 56
# ------------------------- EQUILIBRATION-------------------------------
variable myTemp  equal temp
variable myPress equal press
variable myVol   equal vol
variable natoms equal "count(all)"
variable teng equal "pe"
variable ecoh equal "v_teng/v_natoms"
variable lengthx equal "lx/v_nl"
variable lengthy equal "ly/v_nl"
variable lengthz equal "lz/v_nl"

fix           avgmyTemp  all ave/time 1 5 10 v_myTemp ave running start 10000
fix           avgmyPress  all ave/time 1 5 10 v_myPress ave running start 10000
fix           avgmyVol  all ave/time 1 5 10 v_myVol ave running start 10000
fix           avglx  all ave/time 1 5 10 v_lengthx mode scalar ave running start 10000
fix           avgly  all ave/time 1 5 10 v_lengthy mode scalar ave running start 10000
fix           avglz  all ave/time 1 5 10 v_lengthz mode scalar ave running start 10000
variable      T equal "f_avgmyTemp"
variable      P equal "f_avgmyPress"
variable      V equal "f_avgmyVol"
variable      LX equal "f_avglx"
variable      LY equal "f_avgly"
variable      LZ equal "f_avglz"

timestep      0.001
thermo 100
thermo_style custom step pe lx ly lz temp press pxx pyy pzz vol

velocity all create 300.0 4928459 dist gaussian
fix 1 all npt temp 300.0 300.0 0.1 aniso 0.0 0.0 1 drag 1
run 10000
Step         PotEng           Lx             Ly             Lz            Temp          Press           Pxx            Pyy            Pzz           Volume
0  -8631.9966      28.66          28.66          28.66          300            4451.5994      4527.5432      4481.0114      4346.2436      23541.198
Averages over the last 51 of 101 rows, steps 5000 to 10000:
PotEng Lx Ly Lz Temp Press Pxx Pyy Pzz Volume
-8550.56 28.8369 28.8378 28.8364 299.406 97.0009 83.1769 81.2649 126.561 23980.2
Loop time of 5.96285 on 8 procs for 10000 steps with 2000 atoms

min_style       cg
minimize        1.0e-25  1.0e-25  5000  10000
Step         PotEng           Lx             Ly             Lz            Temp          Press           Pxx            Pyy            Pzz           Volume
10000  -8550.4912      28.84924       28.831196      28.845975      298.66108     -568.69663     -504.95719     -737.51792     -463.61476      23992.873
Loop time of 0.0537776 on 8 procs for 59 steps with 2000 atoms

Minimization stats:
  Stopping criterion = energy tolerance
  Energy initial, next-to-last, final =
  Force two-norm initial, final = 45.074968 3.3746691e-06
  Force max component initial, final = 2.3547768 1.7405205e-07
  Final line search alpha, max atom move = 1 1.7405205e-07
  Iterations, force evaluations = 59 117

flag: lx = 2.88489316219982 ly = 2.88321161411959 lz = 2.88458831264256 Energy = -4.31384712377626
avarage temperature = 298.412311438911
lx = 2.88489316219982
ly = 2.88321161411959
lz = 2.88458831264256
Total energy (eV) = -4.31384712377626
Lattice constantx (Angstoms) = 2.88492396580622
Lattice constanty (Angstoms) = 2.88311957110134
Lattice constantz (Angstoms) = 2.88459751368517
Temperature (K) = 298.661075621113
write_data Fe_300.0.data
System init for write_data ...
# ------------------------ INITIALIZATION ----------------------------
# ------------------------ PRE-AMBLE--------------------------
units		metal
dimension 	3
boundary	p	p	p
atom_style		atomic
atom_modify map array
neighbor		1.0 bin
neigh_modify	every 1 delay 2 check yes
variable	nl	equal	10
# ------------------------ DOMAIN DEFINITION--------------------------
lattice	bcc	2.866
Lattice spacing in x,y,z = 2.866 2.866 2.866
region	region1	prism	0	10	0	10	0	10	 0 0 0
create_box	1	region1
Created triclinic box = (0 0 0) to (28.66 28.66 28.66) with tilt (0 0 0)
create_atoms	1	region region1
Created 2000 atoms
# ------------------------ FORCE FIELDS ------------------------------
# Interatomic potential
pair_style		eam/alloy
pair_coeff		* * Fe_Ack.eam Fe
neighbor        		2 bin
neigh_modify    		every 10 delay 0 check no
mass            		1 56
# ------------------------- EQUILIBRATION-------------------------------
variable myTemp  equal temp
variable myPress equal press
variable myVol   equal vol
variable natoms equal "count(all)"
variable teng equal "pe"
variable ecoh equal "v_teng/v_natoms"
variable lengthx equal "lx/v_nl"
variable lengthy equal "ly/v_nl"
variable lengthz equal "lz/v_nl"

fix           avgmyTemp  all ave/time 1 5 10 v_myTemp ave running start 10000
fix           avgmyPress  all ave/time 1 5 10 v_myPress ave running start 10000
fix           avgmyVol  all ave/time 1 5 10 v_myVol ave running start 10000
fix           avglx  all ave/time 1 5 10 v_lengthx mode scalar ave running start 10000
fix           avgly  all ave/time 1 5 10 v_lengthy mode scalar ave running start 10000
fix           avglz  all ave/time 1 5 10 v_lengthz mode scalar ave running start 10000
variable      T equal "f_avgmyTemp"
variable      P equal "f_avgmyPress"
variable      V equal "f_avgmyVol"
variable      LX equal "f_avglx"
variable      LY equal "f_avgly"
variable      LZ equal "f_avglz"

timestep      0.001
thermo 100
thermo_style custom step pe lx ly lz temp press pxx pyy pzz vol

velocity all create 400.0 4928459 dist gaussian
fix 1 all npt temp 400.0 400.0 0.1 aniso 0.0 0.0 1 drag 1
run 10000
Step         PotEng           Lx             Ly             Lz            Temp          Press           Pxx            Pyy            Pzz           Volume
0  -8631.9966      28.66          28.66          28.66          400            5623.9783      5725.2367      5663.1943      5483.5038      23541.198
Averages over the last 51 of 101 rows, steps 5000 to 10000:
PotEng Lx Ly Lz Temp Press Pxx Pyy Pzz Volume
-8520.97 28.8898 28.8923 28.8867 400.747 -146.001 -146.809 -105.672 -185.521 24111.5
Loop time of 5.83608 on 8 procs for 10000 steps with 2000 atoms

min_style       cg
minimize        1.0e-25  1.0e-25  5000  10000
Step         PotEng           Lx             Ly             Lz            Temp          Press           Pxx            Pyy            Pzz           Volume
10000  -8520.6618      28.913761      28.884943      28.869834      400.13683      394.82798      155.67225      555.90742      472.90428      24111.287
Loop time of 0.0977834 on 8 procs for 94 steps with 2000 atoms

Minimization stats:
  Stopping criterion = energy tolerance
  Energy initial, next-to-last, final =
  Force two-norm initial, final = 52.622496 1.6618389e-09
  Force max component initial, final = 2.5502287 8.9948132e-11
  Final line search alpha, max atom move = 1 8.9948132e-11
  Iterations, force evaluations = 94 185

flag: lx = 2.89136914146462 ly = 2.88843497475179 lz = 2.88698094537498 Energy = -4.31257914121287
avarage temperature = 399.334243769657
lx = 2.89136914146462
ly = 2.88843497475179
lz = 2.88698094537498
Total energy (eV) = -4.31257914121287
Lattice constantx (Angstoms) = 2.89137613298111
Lattice constanty (Angstoms) = 2.88849426313139
Lattice constantz (Angstoms) = 2.8869834334763
Temperature (K) = 400.13682887964
write_data Fe_400.0.data
System init for write_data ...
# ------------------------ INITIALIZATION ----------------------------
# ------------------------ PRE-AMBLE--------------------------
units		metal
dimension 	3
boundary	p	p	p
atom_style		atomic
atom_modify map array
neighbor		1.0 bin
neigh_modify	every 1 delay 2 check yes
variable	nl	equal	10
# ------------------------ DOMAIN DEFINITION--------------------------
lattice	bcc	2.866
Lattice spacing in x,y,z = 2.866 2.866 2.866
region	region1	prism	0	10	0	10	0	10	 0 0 0
create_box	1	region1
Created triclinic box = (0 0 0) to (28.66 28.66 28.66) with tilt (0 0 0)
create_atoms	1	region region1
Created 2000 atoms
# ------------------------ FORCE FIELDS ------------------------------
# Interatomic potential
pair_style		eam/alloy
pair_coeff		* * Fe_Ack.eam Fe
neighbor        		2 bin
neigh_modify    		every 10 delay 0 check no
mass            		1 56
# ------------------------- EQUILIBRATION-------------------------------
variable myTemp  equal temp
variable myPress equal press
variable myVol   equal vol
variable natoms equal "count(all)"
variable teng equal "pe"
variable ecoh equal "v_teng/v_natoms"
variable lengthx equal "lx/v_nl"
variable lengthy equal "ly/v_nl"
variable lengthz equal "lz/v_nl"

fix           avgmyTemp  all ave/time 1 5 10 v_myTemp ave running start 10000
fix           avgmyPress  all ave/time 1 5 10 v_myPress ave running start 10000
fix           avgmyVol  all ave/time 1 5 10 v_myVol ave running start 10000
fix           avglx  all ave/time 1 5 10 v_lengthx mode scalar ave running start 10000
fix           avgly  all ave/time 1 5 10 v_lengthy mode scalar ave running start 10000
fix           avglz  all ave/time 1 5 10 v_lengthz mode scalar ave running start 10000
variable      T equal "f_avgmyTemp"
variable      P equal "f_avgmyPress"
variable      V equal "f_avgmyVol"
variable      LX equal "f_avglx"
variable      LY equal "f_avgly"
variable      LZ equal "f_avglz"

timestep      0.001
thermo 100
thermo_style custom step pe lx ly lz temp press pxx pyy pzz vol

velocity all create 500.0 4928459 dist gaussian
fix 1 all npt temp 500.0 500.0 0.1 aniso 0.0 0.0 1 drag 1
run 10000
Step         PotEng           Lx             Ly             Lz            Temp          Press           Pxx            Pyy            Pzz           Volume
0  -8631.9966      28.66          28.66          28.66          500            6796.3571      6922.9301      6845.3771      6620.7641      23541.198
Averages over the last 51 of 101 rows, steps 5000 to 10000:
PotEng Lx Ly Lz Temp Press Pxx Pyy Pzz Volume
-8489.98 28.9451 28.9453 28.9442 498.69 109.517 140.658 125.917 61.9772 24250.2
Loop time of 5.75893 on 8 procs for 10000 steps with 2000 atoms

min_style       cg
minimize        1.0e-25  1.0e-25  5000  10000
Step         PotEng           Lx             Ly             Lz            Temp          Press           Pxx            Pyy            Pzz           Volume
10000  -8490.7691      28.964945      28.94678       28.958221      503.23079     -2198.0566     -2577.1909     -2370.5571     -1646.4216      24279.786
Loop time of 0.0637583 on 8 procs for 77 steps with 2000 atoms

Minimization stats:
  Stopping criterion = energy tolerance
  Energy initial, next-to-last, final =
  Force two-norm initial, final = 57.02111 8.4455069e-08
  Force max component initial, final = 2.7230731 4.2701247e-09
  Final line search alpha, max atom move = 1 4.2701247e-09
  Iterations, force evaluations = 77 151

flag: lx = 2.89650850700098 ly = 2.894662460113 lz = 2.89581461810577 Energy = -4.31032904323268
avarage temperature = 501.930586714468
lx = 2.89650850700098
ly = 2.894662460113
lz = 2.89581461810577
Total energy (eV) = -4.31032904323268
Lattice constantx (Angstoms) = 2.89649450478626
Lattice constanty (Angstoms) = 2.8946779860452
Lattice constantz (Angstoms) = 2.89582214230098
Temperature (K) = 503.230792374859
write_data Fe_500.0.data
System init for write_data ...
# ------------------------ INITIALIZATION ----------------------------
# ------------------------ PRE-AMBLE--------------------------
units		metal
dimension 	3
boundary	p	p	p
atom_style		atomic
atom_modify map array
neighbor		1.0 bin
neigh_modify	every 1 delay 2 check yes
variable	nl	equal	10
# ------------------------ DOMAIN DEFINITION--------------------------
lattice	bcc	2.866
Lattice spacing in x,y,z = 2.866 2.866 2.866
region	region1	prism	0	10	0	10	0	10	 0 0 0
create_box	1	region1
Created triclinic box = (0 0 0) to (28.66 28.66 28.66) with tilt (0 0 0)
create_atoms	1	region region1
Created 2000 atoms
# ------------------------ FORCE FIELDS ------------------------------
# Interatomic potential
pair_style		eam/alloy
pair_coeff		* * Fe_Ack.eam Fe
neighbor        		2 bin
neigh_modify    		every 10 delay 0 check no
mass            		1 56
# ------------------------- EQUILIBRATION-------------------------------
variable myTemp  equal temp
variable myPress equal press
variable myVol   equal vol
variable natoms equal "count(all)"
variable teng equal "pe"
variable ecoh equal "v_teng/v_natoms"
variable lengthx equal "lx/v_nl"
variable lengthy equal "ly/v_nl"
variable lengthz equal "lz/v_nl"

fix           avgmyTemp  all ave/time 1 5 10 v_myTemp ave running start 10000
fix           avgmyPress  all ave/time 1 5 10 v_myPress ave running start 10000
fix           avgmyVol  all ave/time 1 5 10 v_myVol ave running start 10000
fix           avglx  all ave/time 1 5 10 v_lengthx mode scalar ave running start 10000
fix           avgly  all ave/time 1 5 10 v_lengthy mode scalar ave running start 10000
fix           avglz  all ave/time 1 5 10 v_lengthz mode scalar ave running start 10000
variable      T equal "f_avgmyTemp"
variable      P equal "f_avgmyPress"
variable      V equal "f_avgmyVol"
variable      LX equal "f_avglx"
variable      LY equal "f_avgly"
variable      LZ equal "f_avglz"

timestep      0.001
thermo 100
thermo_style custom step pe lx ly lz temp press pxx pyy pzz vol

velocity all create 600.0 4928459 dist gaussian
fix 1 all npt temp 600.0 600.0 0.1 aniso 0.0 0.0 1 drag 1
run 10000
Step         PotEng           Lx             Ly             Lz            Temp          Press           Pxx            Pyy            Pzz           Volume
0  -8631.9966      28.66          28.66          28.66          600            7968.736       8120.6236      8027.56        7758.0243      23541.198
Averages over the last 51 of 101 rows, steps 5000 to 10000:
PotEng Lx Ly Lz Temp Press Pxx Pyy Pzz Volume
-8459.34 29.0026 28.9953 29.0052 599.809 -60.1411 75.0427 -219.111 -36.3551 24391.6
Loop time of 5.8038 on 8 procs for 10000 steps with 2000 atoms

min_style       cg
minimize        1.0e-25  1.0e-25  5000  10000
Step         PotEng           Lx             Ly             Lz            Temp          Press           Pxx            Pyy            Pzz           Volume
10000  -8464.0128      29.014893      29.006652      28.971883      618.54233     -459.44498     -1089.2679     -922.62301      633.55597      24383.458
Loop time of 0.118448 on 8 procs for 132 steps with 2000 atoms

Minimization stats:
  Stopping criterion = energy tolerance
  Energy initial, next-to-last, final =
  Force two-norm initial, final = 62.285047 5.7413067e-13
  Force max component initial, final = 3.3540381 3.0120004e-14
  Final line search alpha, max atom move = 1 3.0120004e-14
  Iterations, force evaluations = 132 259

flag: lx = 2.90142298933638 ly = 2.90069926860989 lz = 2.89720589619929 Energy = -4.30868925169329
avarage temperature = 617.082646213331
lx = 2.90142298933638
ly = 2.90069926860989
lz = 2.89720589619929
Total energy (eV) = -4.30868925169329
Lattice constantx (Angstoms) = 2.9014892622205
Lattice constanty (Angstoms) = 2.90066521645741
Lattice constantz (Angstoms) = 2.8971882794526
Temperature (K) = 618.542332328203
write_data Fe_600.0.data
System init for write_data ...
# ------------------------ INITIALIZATION ----------------------------
# ------------------------ PRE-AMBLE--------------------------
units		metal
dimension 	3
boundary	p	p	p
atom_style		atomic
atom_modify map array
neighbor		1.0 bin
neigh_modify	every 1 delay 2 check yes
variable	nl	equal	10
# ------------------------ DOMAIN DEFINITION--------------------------
lattice	bcc	2.866
Lattice spacing in x,y,z = 2.866 2.866 2.866
region	region1	prism	0	10	0	10	0	10	 0 0 0
create_box	1	region1
Created triclinic box = (0 0 0) to (28.66 28.66 28.66) with tilt (0 0 0)
create_atoms	1	region region1
Created 2000 atoms
# ------------------------ FORCE FIELDS ------------------------------
# Interatomic potential
pair_style		eam/alloy
pair_coeff		* * Fe_Ack.eam Fe
neighbor        		2 bin
neigh_modify    		every 10 delay 0 check no
mass            		1 56
# ------------------------- EQUILIBRATION-------------------------------
variable myTemp  equal temp
variable myPress equal press
variable myVol   equal vol
variable natoms equal "count(all)"
variable teng equal "pe"
variable ecoh equal "v_teng/v_natoms"
variable lengthx equal "lx/v_nl"
variable lengthy equal "ly/v_nl"
variable lengthz equal "lz/v_nl"

fix           avgmyTemp  all ave/time 1 5 10 v_myTemp ave running start 10000
fix           avgmyPress  all ave/time 1 5 10 v_myPress ave running start 10000
fix           avgmyVol  all ave/time 1 5 10 v_myVol ave running start 10000
fix           avglx  all ave/time 1 5 10 v_lengthx mode scalar ave running start 10000
fix           avgly  all ave/time 1 5 10 v_lengthy mode scalar ave running start 10000
fix           avglz  all ave/time 1 5 10 v_lengthz mode scalar ave running start 10000
variable      T equal "f_avgmyTemp"
variable      P equal "f_avgmyPress"
variable      V equal "f_avgmyVol"
variable      LX equal "f_avglx"
variable      LY equal "f_avgly"
variable      LZ equal "f_avglz"

timestep      0.001
thermo 100
thermo_style custom step pe lx ly lz temp press pxx pyy pzz vol

velocity all create 700.0 4928459 dist gaussian
fix 1 all npt temp 700.0 700.0 0.1 aniso 0.0 0.0 1 drag 1
run 10000
Step         PotEng           Lx             Ly             Lz            Temp          Press           Pxx            Pyy            Pzz           Volume
0  -8631.9966      28.66          28.66          28.66          700            9141.1148      9318.317       9209.7429      8895.2845      23541.198
Averages over the last 51 of 101 rows, steps 5000 to 10000:
PotEng Lx Ly Lz Temp Press Pxx Pyy Pzz Volume
-8428.45 29.0561 29.0552 29.0586 700.103 -33.1032 -54.7615 2.00222 -46.5504 24532.2
Loop time of 5.68234 on 8 procs for 10000 steps with 2000 atoms

min_style       cg
minimize        1.0e-25  1.0e-25  5000  10000
Step         PotEng           Lx             Ly             Lz            Temp          Press           Pxx            Pyy            Pzz           Volume
10000  -8424.7791      29.080043      29.033305      29.061004      681.87928      919.9574       357.46162      1108.5412      1293.8694      24535.909
Loop time of 0.0750893 on 8 procs for 85 steps with 2000 atoms

Minimization stats:
  Stopping criterion = energy tolerance
  Energy initial, next-to-last, final =
  Force two-norm initial, final = 68.89979 7.8567923e-09
  Force max component initial, final = 4.3618251 3.9164535e-10
  Final line search alpha, max atom move = 1 3.9164535e-10
  Iterations, force evaluations = 85 165

flag: lx = 2.90801171363284 ly = 2.90333566752725 lz = 2.90609697074482 Energy = -4.30594740613808
avarage temperature = 682.383407930006
lx = 2.90801171363284
ly = 2.90333566752725
lz = 2.90609697074482
Total energy (eV) = -4.30594740613808
Lattice constantx (Angstoms) = 2.90800432217061
Lattice constanty (Angstoms) = 2.90333052951232
Lattice constantz (Angstoms) = 2.90610044060639
Temperature (K) = 681.879282331473
write_data Fe_700.0.data
System init for write_data ...
# ------------------------ INITIALIZATION ----------------------------
# ------------------------ PRE-AMBLE--------------------------
units		metal
dimension 	3
boundary	p	p	p
atom_style		atomic
atom_modify map array
neighbor		1.0 bin
neigh_modify	every 1 delay 2 check yes
variable	nl	equal	10
# ------------------------ DOMAIN DEFINITION--------------------------
lattice	bcc	2.866
Lattice spacing in x,y,z = 2.866 2.866 2.866
region	region1	prism	0	10	0	10	0	10	 0 0 0
create_box	1	region1
Created triclinic box = (0 0 0) to (28.66 28.66 28.66) with tilt (0 0 0)
create_atoms	1	region region1
Created 2000 atoms
# ------------------------ FORCE FIELDS ------------------------------
# Interatomic potential
pair_style		eam/alloy
pair_coeff		* * Fe_Ack.eam Fe
neighbor        		2 bin
neigh_modify    		every 10 delay 0 check no
mass            		1 56
# ------------------------- EQUILIBRATION-------------------------------
variable myTemp  equal temp
variable myPress equal press
variable myVol   equal vol
variable natoms equal "count(all)"
variable teng equal "pe"
variable ecoh equal "v_teng/v_natoms"
variable lengthx equal "lx/v_nl"
variable lengthy equal "ly/v_nl"
variable lengthz equal "lz/v_nl"

fix           avgmyTemp  all ave/time 1 5 10 v_myTemp ave running start 10000
fix           avgmyPress  all ave/time 1 5 10 v_myPress ave running start 10000
fix           avgmyVol  all ave/time 1 5 10 v_myVol ave running start 10000
fix           avglx  all ave/time 1 5 10 v_lengthx mode scalar ave running start 10000
fix           avgly  all ave/time 1 5 10 v_lengthy mode scalar ave running start 10000
fix           avglz  all ave/time 1 5 10 v_lengthz mode scalar ave running start 10000
variable      T equal "f_avgmyTemp"
variable      P equal "f_avgmyPress"
variable      V equal "f_avgmyVol"
variable      LX equal "f_avglx"
variable      LY equal "f_avgly"
variable      LZ equal "f_avglz"

timestep      0.001
thermo 100
thermo_style custom step pe lx ly lz temp press pxx pyy pzz vol

velocity all create 800.0 4928459 dist gaussian
fix 1 all npt temp 800.0 800.0 0.1 aniso 0.0 0.0 1 drag 1
run 10000
Step         PotEng           Lx             Ly             Lz            Temp          Press           Pxx            Pyy            Pzz           Volume
0  -8631.9966      28.66          28.66          28.66          800            10313.494      10516.01       10391.926      10032.545      23541.198
Averages over the last 51 of 101 rows, steps 5000 to 10000:
PotEng Lx Ly Lz Temp Press Pxx Pyy Pzz Volume
-8397.46 29.1143 29.1129 29.1086 799.687 119.768 55.8771 122.329 181.099 24672.4
Loop time of 5.97642 on 8 procs for 10000 steps with 2000 atoms

min_style       cg
minimize        1.0e-25  1.0e-25  5000  10000
Step         PotEng           Lx             Ly             Lz            Temp          Press           Pxx            Pyy            Pzz           Volume
10000  -8399.6738      29.133035      29.082684      29.127028      808.90751     -1436.3086     -1569.414      -1318.9051     -1420.6067      24678.365
Loop time of 0.0659741 on 8 procs for 72 steps with 2000 atoms

Minimization stats:
  Stopping criterion = energy tolerance
  Energy initial, next-to-last, final =
  Force two-norm initial, final = 71.261341 1.2594067e-07
  Force max component initial, final = 4.6602912 6.0405075e-09
  Final line search alpha, max atom move = 1 6.0405075e-09
  Iterations, force evaluations = 72 138

flag: lx = 2.91325064784029 ly = 2.90839717085098 lz = 2.9127045166225 Energy = -4.30301897114097
avarage temperature = 807.336442882314
lx = 2.91325064784029
ly = 2.90839717085098
lz = 2.9127045166225
Total energy (eV) = -4.30301897114097
Lattice constantx (Angstoms) = 2.91330346920765
Lattice constanty (Angstoms) = 2.90826840441036
Lattice constantz (Angstoms) = 2.9127027708612
Temperature (K) = 808.907510675254
write_data Fe_800.0.data
System init for write_data ...
# ------------------------ INITIALIZATION ----------------------------
# ------------------------ PRE-AMBLE--------------------------
units		metal
dimension 	3
boundary	p	p	p
atom_style		atomic
atom_modify map array
neighbor		1.0 bin
neigh_modify	every 1 delay 2 check yes
variable	nl	equal	10
# ------------------------ DOMAIN DEFINITION--------------------------
lattice	bcc	2.866
Lattice spacing in x,y,z = 2.866 2.866 2.866
region	region1	prism	0	10	0	10	0	10	 0 0 0
create_box	1	region1
Created triclinic box = (0 0 0) to (28.66 28.66 28.66) with tilt (0 0 0)
create_atoms	1	region region1
Created 2000 atoms
# ------------------------ FORCE FIELDS ------------------------------
# Interatomic potential
pair_style		eam/alloy
pair_coeff		* * Fe_Ack.eam Fe
neighbor        		2 bin
neigh_modify    		every 10 delay 0 check no
mass            		1 56
# ------------------------- EQUILIBRATION-------------------------------
variable myTemp  equal temp
variable myPress equal press
variable myVol   equal vol
variable natoms equal "count(all)"
variable teng equal "pe"
variable ecoh equal "v_teng/v_natoms"
variable lengthx equal "lx/v_nl"
variable lengthy equal "ly/v_nl"
variable lengthz equal "lz/v_nl"

fix           avgmyTemp  all ave/time 1 5 10 v_myTemp ave running start 10000
fix           avgmyPress  all ave/time 1 5 10 v_myPress ave running start 10000
fix           avgmyVol  all ave/time 1 5 10 v_myVol ave running start 10000
fix           avglx  all ave/time 1 5 10 v_lengthx mode scalar ave running start 10000
fix           avgly  all ave/time 1 5 10 v_lengthy mode scalar ave running start 10000
fix           avglz  all ave/time 1 5 10 v_lengthz mode scalar ave running start 10000
variable      T equal "f_avgmyTemp"
variable      P equal "f_avgmyPress"
variable      V equal "f_avgmyVol"
variable      LX equal "f_avglx"
variable      LY equal "f_avgly"
variable      LZ equal "f_avglz"

timestep      0.001
thermo 100
thermo_style custom step pe lx ly lz temp press pxx pyy pzz vol

velocity all create 900.0 4928459 dist gaussian
fix 1 all npt temp 900.0 900.0 0.1 aniso 0.0 0.0 1 drag 1
run 10000
Step         PotEng           Lx             Ly             Lz            Temp          Press           Pxx            Pyy            Pzz           Volume
0  -8631.9966      28.66          28.66          28.66          900            11485.872      11713.704      11574.109      11169.805      23541.198
Averages over the last 51 of 101 rows, steps 5000 to 10000:
PotEng Lx Ly Lz Temp Press Pxx Pyy Pzz Volume
-8366.68 29.173 29.1704 29.1614 900.588 -94.7972 -31.7068 -257.862 5.17724 24815.9
Loop time of 6.0952 on 8 procs for 10000 steps with 2000 atoms

min_style       cg
minimize        1.0e-25  1.0e-25  5000  10000
Step         PotEng           Lx             Ly             Lz            Temp          Press           Pxx            Pyy            Pzz           Volume
10000  -8368.0758      29.142447      29.18746       29.173856      905.41271      284.52212      1040.4572     -665.79213      478.90126      24815.107
Loop time of 0.0644061 on 8 procs for 70 steps with 2000 atoms

Minimization stats:
  Stopping criterion = energy tolerance
  Energy initial, next-to-last, final =
  Force two-norm initial, final = 75.982454 7.9534281e-08
  Force max component initial, final = 3.6603376 4.5343217e-09
  Final line search alpha, max atom move = 1 4.5343217e-09
  Iterations, force evaluations = 70 134

flag: lx = 2.91417491041197 ly = 2.91880063925602 lz = 2.91738897122007 Energy = -4.29987463043785
avarage temperature = 902.434606097314
lx = 2.91417491041197
ly = 2.91880063925602
lz = 2.91738897122007
Total energy (eV) = -4.29987463043785
Lattice constantx (Angstoms) = 2.91424471937546
Lattice constanty (Angstoms) = 2.91874596020535
Lattice constantz (Angstoms) = 2.91738557240348
Temperature (K) = 905.412706518472
write_data Fe_900.0.data
System init for write_data ...
# ------------------------ INITIALIZATION ----------------------------
# ------------------------ PRE-AMBLE--------------------------
units		metal
dimension 	3
boundary	p	p	p
atom_style		atomic
atom_modify map array
neighbor		1.0 bin
neigh_modify	every 1 delay 2 check yes
variable	nl	equal	10
# ------------------------ DOMAIN DEFINITION--------------------------
lattice	bcc	2.866
Lattice spacing in x,y,z = 2.866 2.866 2.866
region	region1	prism	0	10	0	10	0	10	 0 0 0
create_box	1	region1
Created triclinic box = (0 0 0) to (28.66 28.66 28.66) with tilt (0 0 0)
create_atoms	1	region region1
Created 2000 atoms
# ------------------------ FORCE FIELDS ------------------------------
# Interatomic potential
pair_style		eam/alloy
pair_coeff		* * Fe_Ack.eam Fe
neighbor        		2 bin
neigh_modify    		every 10 delay 0 check no
mass            		1 56
# ------------------------- EQUILIBRATION-------------------------------
variable myTemp  equal temp
variable myPress equal press
variable myVol   equal vol
variable natoms equal "count(all)"
variable teng equal "pe"
variable ecoh equal "v_teng/v_natoms"
variable lengthx equal "lx/v_nl"
variable lengthy equal "ly/v_nl"
variable lengthz equal "lz/v_nl"

fix           avgmyTemp  all ave/time 1 5 10 v_myTemp ave running start 10000
fix           avgmyPress  all ave/time 1 5 10 v_myPress ave running start 10000
fix           avgmyVol  all ave/time 1 5 10 v_myVol ave running start 10000
fix           avglx  all ave/time 1 5 10 v_lengthx mode scalar ave running start 10000
fix           avgly  all ave/time 1 5 10 v_lengthy mode scalar ave running start 10000
fix           avglz  all ave/time 1 5 10 v_lengthz mode scalar ave running start 10000
variable      T equal "f_avgmyTemp"
variable      P equal "f_avgmyPress"
variable      V equal "f_avgmyVol"
variable      LX equal "f_avglx"
variable      LY equal "f_avgly"
variable      LZ equal "f_avglz"

timestep      0.001
thermo 100
thermo_style custom step pe lx ly lz temp press pxx pyy pzz vol

velocity all create 1000 4928459 dist gaussian
fix 1 all npt temp 1000 1000 0.1 aniso 0.0 0.0 1 drag 1
run 10000
Step         PotEng           Lx             Ly             Lz            Temp          Press           Pxx            Pyy            Pzz           Volume
0  -8631.9966      28.66          28.66          28.66          1000           12658.251      12911.397      12756.291      12307.065      23541.198
Averages over the last 51 of 101 rows, steps 5000 to 10000:
PotEng Lx Ly Lz Temp Press Pxx Pyy Pzz Volume
-8335.3 29.2355 29.2313 29.1941 999.478 33.6793 1.04691 -49.308 149.299 24949
Loop time of 5.77061 on 8 procs for 10000 steps with 2000 atoms

min_style       cg
minimize        1.0e-25  1.0e-25  5000  10000
Step         PotEng           Lx             Ly             Lz            Temp          Press           Pxx            Pyy            Pzz           Volume
10000  -8336.9696      29.255161      29.240425      29.147705      1008.5813     -122.78533     -48.92525      -568.60035      249.16961      24933.919
Loop time of 0.0524759 on 8 procs for 58 steps with 2000 atoms

Minimization stats:
  Stopping criterion = energy tolerance
  Energy initial, next-to-last, final =
  Force two-norm initial, final = 80.164055 5.7322357e-06
  Force max component initial, final = 4.0297449 2.783315e-07
  Final line search alpha, max atom move = 1 2.783315e-07
  Iterations, force evaluations = 58 108

flag: lx = 2.92551831402549 ly = 2.92402209264677 lz = 2.91471642655886 Energy = -4.29684305017379
avarage temperature = 1009.31132282845
lx = 2.92551831402549
ly = 2.92402209264677
lz = 2.91471642655886
Total energy (eV) = -4.29684305017379
Lattice constantx (Angstoms) = 2.92551608817216
Lattice constanty (Angstoms) = 2.92404254896358
Lattice constantz (Angstoms) = 2.9147704514337
Temperature (K) = 1008.58132092273
write_data Fe_1000.data
System init for write_data ...
